data_image0
_chemical_formula_structural       Si20Al4O48Ca2
_chemical_formula_sum              "Si20 Al4 O48 Ca2"
_cell_length_a       12.2215
_cell_length_b       12.2215
_cell_length_c       12.2215
_cell_angle_alpha    90
_cell_angle_beta     90
_cell_angle_gamma    90

_space_group_name_H-M_alt    "P 1"
_space_group_IT_number       1

loop_
  _space_group_symop_operation_xyz
  'x, y, z'

loop_
  _atom_site_type_symbol
  _atom_site_label
  _atom_site_symmetry_multiplicity
  _atom_site_fract_x
  _atom_site_fract_y
  _atom_site_fract_z
  _atom_site_occupancy
  Si  Si1       1.0  0.00000  0.18540  0.36760  1.0000
  Si  Si2       1.0  0.36760  0.00000  0.18540  1.0000
  Si  Si3       1.0  0.00000  0.81460  0.63240  1.0000
  Si  Si4       1.0  0.63240  0.18540  0.00000  1.0000
  Si  Si5       1.0  0.63240  0.00000  0.81460  1.0000
  Si  Si6       1.0  0.00000  0.63240  0.18540  1.0000
  Si  Si7       1.0  0.36760  0.81460  0.00000  1.0000
  Si  Si8       1.0  0.81460  0.63240  0.00000  1.0000
  Si  Si9       1.0  0.18540  0.00000  0.63240  1.0000
  Si  Si10      1.0  0.00000  0.36760  0.81460  1.0000
  Si  Si11      1.0  0.00000  0.37380  0.17980  1.0000
  Si  Si12      1.0  0.37380  0.17980  0.00000  1.0000
  Si  Si13      1.0  0.00000  0.62620  0.82020  1.0000
  Si  Si14      1.0  0.62620  0.00000  0.17980  1.0000
  Si  Si15      1.0  0.82020  0.00000  0.62620  1.0000
  Si  Si16      1.0  0.00000  0.82020  0.37380  1.0000
  Si  Si17      1.0  0.17980  0.62620  0.00000  1.0000
  Si  Si18      1.0  0.62620  0.82020  0.00000  1.0000
  Si  Si19      1.0  0.37380  0.00000  0.82020  1.0000
  Si  Si20      1.0  0.00000  0.17980  0.62620  1.0000
  Al  Al1       1.0  0.18540  0.36760  0.00000  1.0000
  Al  Al2       1.0  0.81460  0.00000  0.36760  1.0000
  Al  Al3       1.0  0.17980  0.00000  0.37380  1.0000
  Al  Al4       1.0  0.82020  0.37380  0.00000  1.0000
  O   O1        1.0  0.00000  0.21520  0.49380  1.0000
  O   O2        1.0  0.49380  0.00000  0.21520  1.0000
  O   O3        1.0  0.21520  0.49380  0.00000  1.0000
  O   O4        1.0  0.00000  0.78480  0.50620  1.0000
  O   O5        1.0  0.78480  0.00000  0.49380  1.0000
  O   O6        1.0  0.50620  0.21520  0.00000  1.0000
  O   O7        1.0  0.50620  0.00000  0.78480  1.0000
  O   O8        1.0  0.00000  0.50620  0.21520  1.0000
  O   O9        1.0  0.49380  0.78480  0.00000  1.0000
  O   O10       1.0  0.78480  0.50620  0.00000  1.0000
  O   O11       1.0  0.21520  0.00000  0.50620  1.0000
  O   O12       1.0  0.00000  0.49380  0.78480  1.0000
  O   O13       1.0  0.00000  0.28440  0.29220  1.0000
  O   O14       1.0  0.29220  0.00000  0.28440  1.0000
  O   O15       1.0  0.28440  0.29220  0.00000  1.0000
  O   O16       1.0  0.00000  0.71560  0.70780  1.0000
  O   O17       1.0  0.71560  0.00000  0.29220  1.0000
  O   O18       1.0  0.70780  0.28440  0.00000  1.0000
  O   O19       1.0  0.70780  0.00000  0.71560  1.0000
  O   O20       1.0  0.00000  0.70780  0.28440  1.0000
  O   O21       1.0  0.29220  0.71560  0.00000  1.0000
  O   O22       1.0  0.71560  0.70780  0.00000  1.0000
  O   O23       1.0  0.28440  0.00000  0.70780  1.0000
  O   O24       1.0  0.00000  0.29220  0.71560  1.0000
  O   O25       1.0  0.10700  0.11620  0.33540  1.0000
  O   O26       1.0  0.33540  0.10700  0.11620  1.0000
  O   O27       1.0  0.11620  0.33540  0.10700  1.0000
  O   O28       1.0  0.88380  0.89300  0.66460  1.0000
  O   O29       1.0  0.89300  0.66460  0.88380  1.0000
  O   O30       1.0  0.66460  0.88380  0.89300  1.0000
  O   O31       1.0  0.10700  0.88380  0.66460  1.0000
  O   O32       1.0  0.33540  0.89300  0.88380  1.0000
  O   O33       1.0  0.11620  0.66460  0.89300  1.0000
  O   O34       1.0  0.88380  0.10700  0.33540  1.0000
  O   O35       1.0  0.89300  0.33540  0.11620  1.0000
  O   O36       1.0  0.66460  0.11620  0.10700  1.0000
  O   O37       1.0  0.89300  0.11620  0.66460  1.0000
  O   O38       1.0  0.66460  0.10700  0.88380  1.0000
  O   O39       1.0  0.88380  0.33540  0.89300  1.0000
  O   O40       1.0  0.11620  0.89300  0.33540  1.0000
  O   O41       1.0  0.10700  0.66460  0.11620  1.0000
  O   O42       1.0  0.33540  0.88380  0.10700  1.0000
  O   O43       1.0  0.89300  0.88380  0.33540  1.0000
  O   O44       1.0  0.66460  0.89300  0.11620  1.0000
  O   O45       1.0  0.88380  0.66460  0.10700  1.0000
  O   O46       1.0  0.11620  0.10700  0.66460  1.0000
  O   O47       1.0  0.10700  0.33540  0.88380  1.0000
  O   O48       1.0  0.33540  0.11620  0.89300  1.0000
  Ca  Ca1       1.0  0.80489  0.20194  0.19106  1.0000
  Ca  Ca2       1.0  0.20832  0.19572  0.20644  1.0000
